data_crystal

_audit_creation_method 'AiiDA-DDEC plugin'

_cell_length_a        17.00953
_cell_length_b        16.97609
_cell_length_c        16.90056

_cell_angle_alpha     90.64701
_cell_angle_beta     89.81170
_cell_angle_gamma     90.97347

_symmetry_space_group_name_Hall 'P 1'
_symmetry_space_group_name_H-M  'P 1'

loop_
_symmetry_equiv_pos_as_xyz
 'x,y,z'

loop_
_atom_site_label
_atom_site_type_symbol
_atom_site_fract_x
_atom_site_fract_y
_atom_site_fract_z
_atom_site_charge
Co         Co      0.50611   0.75264   0.99301   0.70861
Co         Co      0.49760   0.24904   0.00073   0.70914
Co         Co      0.00129   0.50358   0.75541   0.70525
Co         Co      0.00002   0.49994   0.25006   0.70903
Co         Co      0.75001   0.99737   0.49708   0.70601
Co         Co      0.24520   0.00386   0.49639   0.70401
Co         Co      0.74863   0.50114   0.00330   0.70837
Co         Co      0.25408   0.50002   0.00282   0.70698
Co         Co      0.49632   0.00144   0.74477   0.70457
Co         Co      0.49841  -0.00144   0.24954   0.70537
Co         Co      0.99628   0.74917   0.50499   0.70793
Co         Co     -0.00056   0.25353   0.50171   0.70656
H          H       0.47783   0.59558   0.08719   0.15116
H          H       0.56224   0.45504   0.08937   0.15387
H          H       0.53367   0.59182   0.90925   0.14964
H          H       0.08887   0.47758   0.60159   0.15073
H          H       0.91992   0.53937   0.56791   0.15189
H          H       0.91693   0.45606   0.44285   0.15118
H          H       0.55533   0.07883   0.45452   0.14820
H          H       0.55302   0.92607   0.52826   0.15328
H          H       0.46686   0.44374   0.92979   0.15594
H          H       0.46544   0.07425   0.55617   0.14772
H          H       0.45630   0.89957   0.38314   0.14657
H          H       0.10645   0.63103   0.45731   0.14602
H          H       0.96068   0.06103   0.57972   0.15508
H          H       0.96811   0.89642   0.40921   0.15147
H          H       0.58455   0.97257   0.07686   0.15125
H          H       0.57436   0.06669   0.96293   0.15133
H          H       0.95374   0.58548   0.06077   0.15065
H          H       0.02547   0.92194   0.58472   0.15197
H          H       0.09984   0.03604   0.40388   0.14813
H          H       0.06788   0.58034   0.97007   0.14942
H          H       0.94886   0.39264   0.87175   0.14591
H          H       0.40582   0.09158   0.03087   0.15258
H          H       0.41345   0.90168   0.96667   0.15211
H          H       0.38927   0.53932   0.10111   0.14833
H          H       0.64813   0.41381   0.12963   0.14311
H          H       0.62053   0.53474   0.90092   0.14604
H          H       0.09228   0.39771   0.53194   0.14680
H          H       0.88401   0.63693   0.56453   0.14458
H          H       0.88151   0.35722   0.43709   0.14500
H          H       0.56669   0.11728   0.35799   0.14505
H          H       0.54724   0.88888   0.62597   0.14556
H          H       0.42861   0.36001   0.87899   0.14291
H          H       0.36909   0.11029   0.54250   0.14683
H          H       0.38975   0.90621   0.46474   0.15151
H          H       0.07859   0.53182   0.43479   0.15381
H          H       0.86218   0.05697   0.61493   0.14548
H          H       0.88612   0.95993   0.40062   0.14771
H          H       0.60875   0.87676   0.04175   0.14587
H          H       0.62417   0.14327   0.91217   0.14250
H          H       0.92139   0.62477   0.15257   0.14334
H          H       0.05174   0.38805   0.13024   0.14582
H          H       0.09648   0.86521   0.63302   0.14069
H          H       0.02978   0.11307   0.40321   0.14939
H          H       0.15079   0.62706   0.92675   0.14344
H          H       0.92445   0.41900   0.97100   0.15177
H          H       0.39754   0.03255   0.11725   0.14789
H          H       0.40176   0.96280   0.88239   0.14878
H          H       0.39596   0.63925   0.13367   0.13871
H          H       0.56072   0.35512   0.11937   0.14477
H          H       0.61875   0.63235   0.86396   0.13950
H          H       0.13402   0.38826   0.62731   0.13875
H          H       0.87384   0.58037   0.65243   0.14399
H          H       0.87474   0.42028   0.35361   0.14496
H          H       0.64690   0.12091   0.42588   0.14577
H          H       0.63415   0.87649   0.56805   0.14380
H          H       0.37056   0.44609   0.88983   0.14543
H          H       0.41997   0.12813   0.63321   0.14393
H          H       0.35777   0.86483   0.37355   0.13719
H          H       0.12690   0.58927   0.36228   0.14097
H          H       0.92003   0.14505   0.62598   0.14313
H          H       0.88020   0.86130   0.36438   0.13859
H          H       0.63144   0.90664   0.14070   0.14182
H          H       0.60590   0.05085   0.86380   0.14588
H          H       0.85614   0.61951   0.07013   0.14487
H          H       0.14097   0.37599   0.07598   0.14347
H          H       0.12051   0.96342   0.60445   0.14791
H          H       0.12483   0.12867   0.36238   0.13814
H          H       0.06144   0.61681   0.87224   0.14597
H          H       0.85274   0.37318   0.90997   0.14156
H          H       0.36287   0.13060   0.11820   0.13816
H          H       0.36687   0.86343   0.88071   0.13727
H          H       0.39299   0.72277   0.84675   0.10853
H          H       0.60726   0.27391   0.84931   0.10892
H          H       0.62059   0.74158   0.14198   0.10801
H          H       0.37749   0.26468   0.14685   0.10557
H          H       0.85509   0.38454   0.73841   0.10919
H          H       0.84902   0.60642   0.27622   0.10851
H          H       0.14726   0.62283   0.73666   0.10991
H          H       0.14843   0.38972   0.27115   0.11046
H          H       0.72529   0.84914   0.38169   0.10810
H          H       0.25361   0.86172   0.61746   0.10709
H          H       0.73696   0.14347   0.61801   0.10866
H          H       0.27346   0.15145   0.38510   0.10838
H          H       0.72332   0.39111   0.84986   0.10884
H          H       0.27534   0.60711   0.85239   0.10798
H          H       0.72910   0.62175   0.14981   0.10959
H          H       0.26497   0.38116   0.14709   0.10783
H          H       0.36990   0.85963   0.73224   0.10727
H          H       0.60731   0.84847   0.26858   0.10813
H          H       0.61700   0.14628   0.73003   0.10915
H          H       0.39263   0.14949   0.27169   0.10854
H          H       0.84815   0.72090   0.39508   0.10837
H          H       0.85340   0.26951   0.61996   0.10730
H          H       0.14514   0.73763   0.62074   0.10684
H          H       0.14802   0.27556   0.38777   0.10855
H          H       0.88664   0.23001   0.35238   0.10999
H          H       0.10896   0.76543   0.35508   0.10957
H          H       0.11688   0.23571   0.64775   0.10794
H          H       0.87648   0.76926   0.64933   0.11039
H          H       0.35046   0.88054   0.22358   0.10830
H          H       0.35162   0.11807   0.76328   0.10866
H          H       0.64697   0.11259   0.22629   0.10993
H          H       0.64443   0.89075   0.75680   0.10880
H          H       0.23455   0.35636   0.87876   0.10933
H          H       0.77164   0.34918   0.10944   0.10875
H          H       0.23835   0.64551   0.12357   0.10834
H          H       0.77319   0.65130   0.89338   0.10917
H          H       0.22080   0.88650   0.34864   0.10801
H          H       0.77448   0.10927   0.34912   0.10984
H          H       0.23238   0.12183   0.64336   0.10933
H          H       0.76219   0.88384   0.64504   0.10746
H          H       0.88904   0.34755   0.22319   0.10955
H          H       0.11599   0.35845   0.76601   0.10637
H          H       0.11799   0.64674   0.23506   0.10675
H          H       0.89213   0.65304   0.78014   0.10916
H          H       0.35257   0.23389   0.88052   0.10914
H          H       0.35386   0.76906   0.10168   0.10837
H          H       0.64680   0.22774   0.11085   0.10921
H          H       0.64999   0.77479   0.87153   0.10700
H          H       0.06140   0.42501   0.03270   0.15099
C          C       0.41333   0.59776   0.08655  -0.48014
C          C       0.59712   0.40110   0.09162  -0.48157
C          C       0.59817   0.59404   0.91211  -0.48103
C          C       0.41294   0.40844   0.91933  -0.48136
C          C       0.08463   0.41326   0.59464  -0.48116
C          C       0.08364   0.59163   0.41064  -0.47980
C          C       0.91288   0.59421   0.60241  -0.48132
C          C       0.91165   0.40392   0.40379  -0.48245
C          C       0.59674   0.08516   0.40469  -0.47950
C          C       0.40879   0.08466   0.58577  -0.48082
C          C       0.58662   0.91715   0.58291  -0.48121
C          C       0.39529   0.91134   0.40024  -0.47948
C          C       0.90642   0.09494   0.58642  -0.48191
C          C       0.08867   0.90941   0.58676  -0.48250
C          C       0.09220   0.09983   0.41071  -0.47816
C          C       0.90374   0.89930   0.41221  -0.48017
C          C       0.58765   0.91020   0.09322  -0.48123
C          C       0.58140   0.09453   0.90481  -0.47959
C          C       0.40963   0.09227   0.09574  -0.48024
C          C       0.41455   0.90291   0.90174  -0.48048
C          C       0.10028   0.58778   0.91410  -0.48092
C          C       0.90298   0.58895   0.10118  -0.48077
C          C       0.09271   0.41642   0.08878  -0.48045
C          C       0.90221   0.41567   0.90999  -0.48185
C          C       0.38512   0.62202   0.00714   0.36373
C          C       0.62220   0.37581   0.01077   0.36233
C          C       0.62481   0.62400   0.99099   0.36251
C          C       0.37997   0.37794   0.99512   0.36501
C          C       0.00701   0.38330   0.62383   0.36330
C          C       0.00566   0.61878   0.38287   0.36399
C          C       0.99049   0.62571   0.63018   0.36385
C          C       0.99045   0.37753   0.37647   0.36034
C          C       0.62261   0.00664   0.37530   0.35997
C          C       0.37463   0.00988   0.61733   0.36285
C          C       0.61844   0.99327   0.61536   0.35868
C          C       0.37292   0.99173   0.37473   0.36609
C          C       0.87817   0.12220   0.50811   0.36422
C          C       0.11669   0.88031   0.50815   0.36173
C          C       0.12021   0.12695   0.49014   0.36375
C          C       0.87476   0.87421   0.49151   0.36624
C          C       0.50894   0.87955   0.11856   0.36408
C          C       0.50470   0.12325   0.87522   0.36368
C          C       0.48929   0.11985   0.12163   0.36124
C          C       0.49292   0.87837   0.87138   0.36817
C          C       0.12649   0.51049   0.88163   0.36153
C          C       0.87590   0.50882   0.12562   0.36210
C          C       0.12300   0.49292   0.12170   0.36053
C          C       0.87735   0.49470   0.88294   0.36417
C          C       0.37666   0.68229   0.89321  -0.07208
C          C       0.62481   0.31537   0.89530  -0.07283
C          C       0.63435   0.69537   0.09981  -0.06861
C          C       0.36539   0.30935   0.10364  -0.07030
C          C       0.89820   0.37077   0.69327  -0.06967
C          C       0.89376   0.62352   0.31880  -0.07056
C          C       0.10249   0.63688   0.69397  -0.06912
C          C       0.10346   0.37312   0.31354  -0.07157
C          C       0.68349   0.89391   0.36688  -0.06722
C          C       0.30056   0.90363   0.63055  -0.07131
C          C       0.69021   0.10118   0.62988  -0.07135
C          C       0.31410   0.10568   0.36864  -0.07237
C          C       0.68234   0.37322   0.89566  -0.07463
C          C       0.31860   0.62511   0.89604  -0.07500
C          C       0.68793   0.63589   0.10368  -0.07617
C          C       0.30964   0.36696   0.10373  -0.07545
C          C       0.35827   0.90257   0.68713  -0.07029
C          C       0.62511   0.89362   0.31091  -0.07762
C          C       0.63105   0.10245   0.68542  -0.07172
C          C       0.37295   0.10482   0.31281  -0.07101
C          C       0.89308   0.67978   0.37782  -0.07619
C          C       0.89761   0.31372   0.63495  -0.07455
C          C       0.10124   0.69372   0.63675  -0.07410
C          C       0.10333   0.31683   0.37133  -0.07466
C          C       0.87142   0.18644   0.39637  -0.07118
C          C       0.12406   0.81111   0.39785  -0.06986
C          C       0.13124   0.19294   0.60221  -0.07213
C          C       0.86277   0.81105   0.60375  -0.07202
C          C       0.39600   0.86730   0.18085  -0.06985
C          C       0.39544   0.13283   0.80749  -0.07570
C          C       0.60201   0.12808   0.18440  -0.07612
C          C       0.60188   0.87361   0.80146  -0.07098
C          C       0.19093   0.40030   0.86687  -0.06993
C          C       0.81372   0.39446   0.12720  -0.07368
C          C       0.19263   0.60225   0.13576  -0.06953
C          C       0.81552   0.60698   0.87722  -0.06759
C          C       0.17962   0.87071   0.39494  -0.07507
C          C       0.81594   0.12671   0.39474  -0.07690
C          C       0.18822   0.13656   0.60022  -0.07350
C          C       0.80616   0.86774   0.60165  -0.07361
C          C       0.87196   0.39362   0.18332  -0.07198
C          C       0.13242   0.40142   0.81103  -0.07492
C          C       0.13315   0.60278   0.19101  -0.07620
C          C       0.87426   0.60767   0.82124  -0.07730
C          C       0.39576   0.18999   0.86571  -0.07117
C          C       0.39772   0.81201   0.12087  -0.07658
C          C       0.60184   0.18506   0.12733  -0.07029
C          C       0.60455   0.81640   0.85819  -0.07219
N          N       0.41842   0.68046   0.96354  -0.37069
N          N       0.58713   0.31687   0.96827  -0.37086
N          N       0.59459   0.68792   0.02844  -0.37759
N          N       0.40961   0.31612   0.03482  -0.37003
N          N       0.96753   0.41453   0.68635  -0.37320
N          N       0.96524   0.58540   0.32166  -0.37514
N          N       0.03229   0.59420   0.68989  -0.37461
N          N       0.03192   0.41117   0.31663  -0.37332
N          N       0.68210   0.96548   0.40729  -0.36989
N          N       0.31083   0.97163   0.58652  -0.37497
N          N       0.68232   0.03201   0.58579  -0.37379
N          N       0.31397   0.03406   0.40751  -0.37142
N          N       0.68086   0.41117   0.96889  -0.37563
N          N       0.32382   0.58733   0.96826  -0.37364
N          N       0.68200   0.59088   0.03474  -0.37424
N          N       0.31878   0.41018   0.03491  -0.37537
N          N       0.40496   0.96988   0.67892  -0.37151
N          N       0.58684   0.96517   0.31606  -0.37337
N          N       0.58588   0.03402   0.67642  -0.37308
N          N       0.40984   0.03261   0.31653  -0.37182
N          N       0.96402   0.67704   0.41801  -0.36929
N          N       0.96656   0.32148   0.59123  -0.37313
N          N       0.03026   0.68678   0.59664  -0.37502
N          N       0.03171   0.31947   0.41091  -0.37267
N          N       0.91048   0.18384   0.46830  -0.37581
N          N       0.08455   0.81710   0.46957  -0.37628
N          N       0.08842   0.18699   0.53249  -0.36981
N          N       0.90604   0.81514   0.53408  -0.37529
N          N       0.46644   0.90977   0.17949  -0.37365
N          N       0.46451   0.09075   0.81342  -0.37378
N          N       0.53076   0.08714   0.18099  -0.37318
N          N       0.53111   0.91256   0.80974  -0.37475
N          N       0.18718   0.46934   0.91141  -0.37239
N          N       0.81597   0.46754   0.09112  -0.37349
N          N       0.18630   0.53268   0.09217  -0.37177
N          N       0.81732   0.53536   0.91585  -0.37073
N          N       0.17526   0.91421   0.46495  -0.37119
N          N       0.81993   0.08633   0.46561  -0.37426
N          N       0.18124   0.09489   0.52931  -0.37549
N          N       0.81370   0.90752   0.53060  -0.37600
N          N       0.91095   0.46611   0.18250  -0.37463
N          N       0.09183   0.47126   0.82024  -0.37230
N          N       0.08938   0.53341   0.18235  -0.37283
N          N       0.91315   0.53641   0.82465  -0.37283
N          N       0.46496   0.18396   0.90840  -0.37650
N          N       0.46941   0.81953   0.08190  -0.37067
N          N       0.53040   0.18005   0.08788  -0.37730
N          N       0.53556   0.81928   0.90222  -0.37490